*HEADING
cubit(gpde/code/dealii/surface_evolution/ellipsoid_4_6_mesh.inp): 06/21/2016: 11
version: 16.0.3
**
********************************** P A R T S **********************************
*PART, NAME=Part-Default
**
********************************** N O D E S **********************************
*NODE, NSET=ALLNODES
    6929,   -2.449294e-16,   -4.000000e+00,    0.000000e+00
    6930,    0.000000e+00,    4.000000e+00,    0.000000e+00
    6931,   -7.922392e-01,   -3.964978e+00,    0.000000e+00
    6932,   -1.578144e+00,   -3.859157e+00,    0.000000e+00
    6933,   -2.350659e+00,   -3.680242e+00,    0.000000e+00
    6934,   -3.101115e+00,   -3.424298e+00,    0.000000e+00
    6935,   -3.817958e+00,   -3.085680e+00,    0.000000e+00
    6936,   -4.484783e+00,   -2.657210e+00,    0.000000e+00
    6937,   -5.077371e+00,   -2.131281e+00,    0.000000e+00
    6938,   -5.559991e+00,   -1.503551e+00,    0.000000e+00
    6939,   -5.884237e+00,   -7.819500e-01,    0.000000e+00
    6940,   -6.000000e+00,    0.000000e+00,    0.000000e+00
    6941,   -5.884237e+00,    7.819500e-01,    0.000000e+00
    6942,   -5.559991e+00,    1.503551e+00,    0.000000e+00
    6943,   -5.077371e+00,    2.131281e+00,    0.000000e+00
    6944,   -4.484783e+00,    2.657210e+00,    0.000000e+00
    6945,   -3.817958e+00,    3.085680e+00,    0.000000e+00
    6946,   -3.101115e+00,    3.424298e+00,    0.000000e+00
    6947,   -2.350659e+00,    3.680242e+00,    0.000000e+00
    6948,   -1.578144e+00,    3.859157e+00,    0.000000e+00
** ... 580 like lines cut
**
********************************** E L E M E N T S ****************************
*ELEMENT, TYPE=S4R, ELSET=EB1
    6907,    6949,    6948,    6951,    6950
    6908,    6948,    6947,    6952,    6951
    6909,    6947,    6946,    6953,    6952
    6910,    6946,    6945,    6954,    6953
    6911,    6945,    6944,    6955,    6954
    6912,    6944,    6943,    6956,    6955
    6913,    6943,    6942,    6957,    6956
    6914,    6942,    6941,    6958,    6957
    6915,    6941,    6940,    6959,    6958
    6916,    6940,    6939,    6960,    6959
    6917,    6939,    6938,    6961,    6960
    6918,    6938,    6937,    6962,    6961
    6919,    6937,    6936,    6963,    6962
    6920,    6936,    6935,    6964,    6963
    6921,    6935,    6934,    6965,    6964
    6922,    6934,    6933,    6966,    6965
    6923,    6933,    6932,    6967,    6966
    6924,    6932,    6931,    6968,    6967
    6925,    6931,    6932,    6970,    6969
    6926,    6932,    6933,    6971,    6970
** ... 578 like lines cut
**
********************************** P R O P E R T I E S ************************
*SHELL SECTION, ELSET=EB1, SECTION INTEGRATION=SIMPSON, MATERIAL=Default-Steel
1.000000e+00
**
*END PART
**
**
**
********************************** E N D   P A R T S **********************************
**
**
********************************** A S S E M B L Y ************************************
**
*ASSEMBLY, NAME=ASSEMBLY1
**
*INSTANCE, NAME=Part-Default_1, PART=Part-Default
*END INSTANCE
**
*END ASSEMBLY
**
**
**
*MATERIAL, NAME = Default-Steel
*ELASTIC, TYPE=ISOTROPIC
2.068000e+05, 2.900000e-01
*DENSITY
7.000000e-06
*CONDUCTIVITY,TYPE=ISO
4.500000e-02
*SPECIFIC HEAT
5.000000e+02
**
**
************************************** H I S T O R Y *************************************
**
*PREPRINT
**
**************************************** S T E P 1 ***************************************
*STEP,INC=100,NAME=Default Set
**
*STATIC
1, 1, 1e-05, 1
**
**
**
**
*END STEP
