*HEADING
cubit(rial/deal-ii.8.4.1_examples/step-1/ellipsoid_4_6_mesh.inp): 06/22/2016: 12
version: 16.0.3
**
********************************** P A R T S **********************************
*PART, NAME=Part-Default
**
********************************** N O D E S **********************************
*NODE, NSET=ALLNODES
       1,    7.922392e-01,    3.964978e+00
       2,    1.578144e+00,    3.859157e+00
       3,    1.427212e+00,    3.861833e+00
       4,    8.766061e-01,    3.944470e+00
       5,    2.350659e+00,    3.680242e+00
       6,    2.161819e+00,    3.697854e+00
       7,    3.101115e+00,    3.424298e+00
       8,    2.935045e+00,    3.448959e+00
       9,    3.817958e+00,    3.085680e+00
      10,    3.683743e+00,    3.113303e+00
      11,    4.484783e+00,    2.657210e+00
      12,    4.377583e+00,    2.683897e+00
      13,    5.077371e+00,    2.131281e+00
      14,    4.990588e+00,    2.154483e+00
      15,    5.559991e+00,    1.503551e+00
      16,    5.489954e+00,    1.519053e+00
      17,    5.884237e+00,    7.819500e-01
      18,    5.825510e+00,    7.860717e-01
      19,    6.000000e+00,    0.000000e+00
      20,    5.944861e+00,   -8.971961e-03
** ... 580 like lines cut
**
********************************** E L E M E N T S ****************************
*ELEMENT, TYPE=S4R, ELSET=EB1
       1,       3,       2,       1,       4
       2,       6,       5,       2,       3
       3,       8,       7,       5,       6
       4,      10,       9,       7,       8
       5,      12,      11,       9,      10
       6,      14,      13,      11,      12
       7,      16,      15,      13,      14
       8,      18,      17,      15,      16
       9,      20,      19,      17,      18
      10,      22,      21,      19,      20
      11,      24,      23,      21,      22
      12,      26,      25,      23,      24
      13,      28,      27,      25,      26
      14,      30,      29,      27,      28
      15,      32,      31,      29,      30
      16,      34,      33,      31,      32
      17,      36,      35,      33,      34
      18,      38,      37,      35,      36
      19,      37,      35,      39,      40
      20,      35,      33,      41,      39
** ... 578 like lines cut
**
********************************** P R O P E R T I E S ************************
*SHELL SECTION, ELSET=EB1, SECTION INTEGRATION=SIMPSON, MATERIAL=Default-Steel
1.000000e+00
**
*END PART
**
**
**
********************************** E N D   P A R T S **********************************
**
**
********************************** A S S E M B L Y ************************************
**
*ASSEMBLY, NAME=ASSEMBLY1
**
*INSTANCE, NAME=Part-Default_1, PART=Part-Default
*END INSTANCE
**
*END ASSEMBLY
**
**
**
*MATERIAL, NAME = Default-Steel
*ELASTIC, TYPE=ISOTROPIC
2.068000e+05, 2.900000e-01
*DENSITY
7.000000e-06
*CONDUCTIVITY,TYPE=ISO
4.500000e-02
*SPECIFIC HEAT
5.000000e+02
**
**
************************************** H I S T O R Y *************************************
**
*PREPRINT
**
**************************************** S T E P 1 ***************************************
*STEP,INC=100,NAME=Default Set
**
*STATIC
1, 1, 1e-05, 1
**
**
**
**
*END STEP
