*HEADING
cubit(l/deal-ii.8.4.1_examples/step-1/ellipsoid_4_6_mesh_3d.inp): 06/22/2016: 12
version: 16.0.3
**
********************************** P A R T S **********************************
*PART, NAME=Part-Default
**
********************************** N O D E S **********************************
*NODE, NSET=ALLNODES
       1,    7.922392e-01,    3.964978e+00,    0.000000e+00
       2,    1.578144e+00,    3.859157e+00,    0.000000e+00
       3,    1.427212e+00,    3.861833e+00,   -6.380609e-01
       4,    8.766061e-01,    3.944470e+00,   -4.734504e-01
       5,    2.350659e+00,    3.680242e+00,    0.000000e+00
       6,    2.161819e+00,    3.697854e+00,   -7.481664e-01
       7,    3.101115e+00,    3.424298e+00,    0.000000e+00
       8,    2.935045e+00,    3.448959e+00,   -7.880607e-01
       9,    3.817958e+00,    3.085680e+00,    0.000000e+00
      10,    3.683743e+00,    3.113303e+00,   -7.883931e-01
      11,    4.484783e+00,    2.657210e+00,    0.000000e+00
      12,    4.377583e+00,    2.683897e+00,   -7.933126e-01
      13,    5.077371e+00,    2.131281e+00,    0.000000e+00
      14,    4.990588e+00,    2.154483e+00,   -8.062219e-01
      15,    5.559991e+00,    1.503551e+00,    0.000000e+00
      16,    5.489954e+00,    1.519053e+00,   -8.176085e-01
      17,    5.884237e+00,    7.819500e-01,    0.000000e+00
      18,    5.825510e+00,    7.860717e-01,   -8.204522e-01
      19,    6.000000e+00,    0.000000e+00,    0.000000e+00
      20,    5.944861e+00,   -8.971961e-03,   -8.114509e-01
** ... 580 like lines cut
**
********************************** E L E M E N T S ****************************
*ELEMENT, TYPE=S4R, ELSET=EB1
       1,       1,       2,       3,       4
       2,       2,       5,       6,       3
       3,       5,       7,       8,       6
       4,       7,       9,      10,       8
       5,       9,      11,      12,      10
       6,      11,      13,      14,      12
       7,      13,      15,      16,      14
       8,      15,      17,      18,      16
       9,      17,      19,      20,      18
      10,      19,      21,      22,      20
      11,      21,      23,      24,      22
      12,      23,      25,      26,      24
      13,      25,      27,      28,      26
      14,      27,      29,      30,      28
      15,      29,      31,      32,      30
      16,      31,      33,      34,      32
      17,      33,      35,      36,      34
      18,      35,      37,      38,      36
      19,      37,      35,      39,      40
      20,      35,      33,      41,      39
** ... 578 like lines cut
**
********************************** P R O P E R T I E S ************************
*SHELL SECTION, ELSET=EB1, SECTION INTEGRATION=SIMPSON, MATERIAL=Default-Steel
1.000000e+00
**
*END PART
**
**
**
********************************** E N D   P A R T S **********************************
**
**
********************************** A S S E M B L Y ************************************
**
*ASSEMBLY, NAME=ASSEMBLY1
**
*INSTANCE, NAME=Part-Default_1, PART=Part-Default
*END INSTANCE
**
*END ASSEMBLY
**
**
**
*MATERIAL, NAME = Default-Steel
*ELASTIC, TYPE=ISOTROPIC
2.068000e+05, 2.900000e-01
*DENSITY
7.000000e-06
*CONDUCTIVITY,TYPE=ISO
4.500000e-02
*SPECIFIC HEAT
5.000000e+02
**
**
************************************** H I S T O R Y *************************************
**
*PREPRINT
**
**************************************** S T E P 1 ***************************************
*STEP,INC=100,NAME=Default Set
**
*STATIC
1, 1, 1e-05, 1
**
**
**
**
*END STEP
